%chk=w3-b3lyp-dz.chk
%mem=1gb
#p b3lyp/cc-pvdz opt freq

(H2O)3 b3lyp/cc-pvdz (opt/freq)

0 1
H -0.578400 -1.061891 -0.138056
O -1.472126 -0.652686 -0.093810
H -1.873835 -1.017331  0.709277
O  1.311636 -0.934602 -0.102722  
H  1.196451  0.042157 -0.061379 
H  1.788313 -1.158405  0.710917
O  0.160256  1.595763  0.119018
H -0.631715  1.011392  0.096164 
H  0.101062  2.116272 -0.696804

